<?xml version="1.0" encoding="UTF-8"?>
<edges xmlns:xsi="http://www.w3.org/2001/XMLSchema-instance" xsi:noNamespaceSchemaLocation="http://sumo.dlr.de/xsd/edges_file.xsd">
    <!-- Incoming Edges (Length 150m) -->
    <edge id="n_in" from="N" to="C" priority="2" numLanes="1" speed="13.89" length="150"/>
    <edge id="e_in" from="E" to="C" priority="2" numLanes="1" speed="13.89" length="150"/>
    <edge id="s_in" from="S" to="C" priority="2" numLanes="1" speed="13.89" length="150"/>
    <edge id="w_in" from="W" to="C" priority="2" numLanes="1" speed="13.89" length="150"/>
    
    <!-- Outgoing Edges (Length 150m) -->
    <edge id="n_out" from="C" to="N" priority="2" numLanes="1" speed="13.89" length="150"/>
    <edge id="e_out" from="C" to="E" priority="2" numLanes="1" speed="13.89" length="150"/>
    <edge id="s_out" from="C" to="S" priority="2" numLanes="1" speed="13.89" length="150"/>
    <edge id="w_out" from="C" to="W" priority="2" numLanes="1" speed="13.89" length="150"/>
</edges>