<?xml version="1.0" encoding="UTF-8"?>

<!-- generated on 2025-12-04T14:48:20.917637+05:30 by Eclipse SUMO netconvert 1.25.0
<netconvertConfiguration xmlns:xsi="http://www.w3.org/2001/XMLSchema-instance" xsi:noNamespaceSchemaLocation="http://sumo.dlr.de/xsd/netconvertConfiguration.xsd">

    <input>
        <node-files value="nodes.nod.xml"/>
        <edge-files value="edges.edg.xml"/>
        <connection-files value="connections.con.xml"/>
    </input>

    <output>
        <output-file value="simple_4way_150m.net.xml"/>
    </output>

    <processing>
        <lefthand value="true"/>
    </processing>

</netconvertConfiguration>
-->

<net version="1.20" junctionCornerDetail="5" lefthand="true" limitTurnSpeed="5.50" xmlns:xsi="http://www.w3.org/2001/XMLSchema-instance" xsi:noNamespaceSchemaLocation="http://sumo.dlr.de/xsd/net_file.xsd">

    <location netOffset="150.00,150.00" convBoundary="0.00,-0.00,300.00,300.00" origBoundary="-150.00,-150.00,150.00,150.00" projParameter="!"/>

    <edge id=":C_0" function="internal">
        <lane id=":C_0_0" index="0" speed="6.51" length="9.03" shape="148.40,142.80 148.05,145.25 147.00,147.00 145.25,148.05 142.80,148.40"/>
    </edge>
    <edge id=":C_1" function="internal">
        <lane id=":C_1_0" index="0" speed="13.89" length="14.40" shape="148.40,142.80 148.40,157.20"/>
    </edge>
    <edge id=":C_2" function="internal">
        <lane id=":C_2_0" index="0" speed="8.00" length="4.07" shape="148.40,142.80 148.95,146.65 149.04,146.80"/>
    </edge>
    <edge id=":C_12" function="internal">
        <lane id=":C_12_0" index="0" speed="8.00" length="10.13" shape="149.04,146.80 150.60,149.40 153.35,151.05 157.20,151.60"/>
    </edge>
    <edge id=":C_3" function="internal">
        <lane id=":C_3_0" index="0" speed="6.51" length="9.03" shape="157.20,148.40 154.75,148.05 153.00,147.00 151.95,145.25 151.60,142.80"/>
    </edge>
    <edge id=":C_4" function="internal">
        <lane id=":C_4_0" index="0" speed="13.89" length="14.40" shape="157.20,148.40 142.80,148.40"/>
    </edge>
    <edge id=":C_5" function="internal">
        <lane id=":C_5_0" index="0" speed="8.00" length="4.07" shape="157.20,148.40 153.35,148.95 153.20,149.04"/>
    </edge>
    <edge id=":C_13" function="internal">
        <lane id=":C_13_0" index="0" speed="8.00" length="10.13" shape="153.20,149.04 150.60,150.60 148.95,153.35 148.40,157.20"/>
    </edge>
    <edge id=":C_6" function="internal">
        <lane id=":C_6_0" index="0" speed="6.51" length="9.03" shape="151.60,157.20 151.95,154.75 153.00,153.00 154.75,151.95 157.20,151.60"/>
    </edge>
    <edge id=":C_7" function="internal">
        <lane id=":C_7_0" index="0" speed="13.89" length="14.40" shape="151.60,157.20 151.60,142.80"/>
    </edge>
    <edge id=":C_8" function="internal">
        <lane id=":C_8_0" index="0" speed="8.00" length="4.07" shape="151.60,157.20 151.05,153.35 150.96,153.20"/>
    </edge>
    <edge id=":C_14" function="internal">
        <lane id=":C_14_0" index="0" speed="8.00" length="10.13" shape="150.96,153.20 149.40,150.60 146.65,148.95 142.80,148.40"/>
    </edge>
    <edge id=":C_9" function="internal">
        <lane id=":C_9_0" index="0" speed="6.51" length="9.03" shape="142.80,151.60 145.25,151.95 147.00,153.00 148.05,154.75 148.40,157.20"/>
    </edge>
    <edge id=":C_10" function="internal">
        <lane id=":C_10_0" index="0" speed="13.89" length="14.40" shape="142.80,151.60 157.20,151.60"/>
    </edge>
    <edge id=":C_11" function="internal">
        <lane id=":C_11_0" index="0" speed="8.00" length="4.07" shape="142.80,151.60 146.65,151.05 146.80,150.96"/>
    </edge>
    <edge id=":C_15" function="internal">
        <lane id=":C_15_0" index="0" speed="8.00" length="10.13" shape="146.80,150.96 149.40,149.40 151.05,146.65 151.60,142.80"/>
    </edge>
    <edge id=":E_0" function="internal">
        <lane id=":E_0_0" index="0" speed="3.65" length="4.67" shape="300.00,151.60 301.20,150.80 301.60,150.00 301.20,149.20 300.00,148.40"/>
    </edge>
    <edge id=":N_0" function="internal">
        <lane id=":N_0_0" index="0" speed="3.65" length="4.67" shape="148.40,300.00 149.20,301.20 150.00,301.60 150.80,301.20 151.60,300.00"/>
    </edge>
    <edge id=":S_0" function="internal">
        <lane id=":S_0_0" index="0" speed="3.65" length="4.67" shape="151.60,-0.00 150.80,-1.20 150.00,-1.60 149.20,-1.20 148.40,-0.00"/>
    </edge>
    <edge id=":W_0" function="internal">
        <lane id=":W_0_0" index="0" speed="3.65" length="4.67" shape="0.00,148.40 -1.20,149.20 -1.60,150.00 -1.20,150.80 0.00,151.60"/>
    </edge>

    <edge id="e_in" from="E" to="C" priority="2" length="150.00">
        <lane id="e_in_0" index="0" speed="13.89" length="150.00" shape="300.00,148.40 157.20,148.40"/>
    </edge>
    <edge id="e_out" from="C" to="E" priority="2" length="150.00">
        <lane id="e_out_0" index="0" speed="13.89" length="150.00" shape="157.20,151.60 300.00,151.60"/>
    </edge>
    <edge id="n_in" from="N" to="C" priority="2" length="150.00">
        <lane id="n_in_0" index="0" speed="13.89" length="150.00" shape="151.60,300.00 151.60,157.20"/>
    </edge>
    <edge id="n_out" from="C" to="N" priority="2" length="150.00">
        <lane id="n_out_0" index="0" speed="13.89" length="150.00" shape="148.40,157.20 148.40,300.00"/>
    </edge>
    <edge id="s_in" from="S" to="C" priority="2" length="150.00">
        <lane id="s_in_0" index="0" speed="13.89" length="150.00" shape="148.40,-0.00 148.40,142.80"/>
    </edge>
    <edge id="s_out" from="C" to="S" priority="2" length="150.00">
        <lane id="s_out_0" index="0" speed="13.89" length="150.00" shape="151.60,142.80 151.60,-0.00"/>
    </edge>
    <edge id="w_in" from="W" to="C" priority="2" length="150.00">
        <lane id="w_in_0" index="0" speed="13.89" length="150.00" shape="0.00,151.60 142.80,151.60"/>
    </edge>
    <edge id="w_out" from="C" to="W" priority="2" length="150.00">
        <lane id="w_out_0" index="0" speed="13.89" length="150.00" shape="142.80,148.40 0.00,148.40"/>
    </edge>

    <tlLogic id="C" type="static" programID="0" offset="0">
        <phase duration="42" state="GGgrrrGGgrrr"/>
        <phase duration="3"  state="yyyrrryyyrrr"/>
        <phase duration="42" state="rrrGGgrrrGGg"/>
        <phase duration="3"  state="rrryyyrrryyy"/>
    </tlLogic>

    <junction id="C" type="traffic_light" x="150.00" y="150.00" incLanes="s_in_0 e_in_0 n_in_0 w_in_0" intLanes=":C_0_0 :C_1_0 :C_12_0 :C_3_0 :C_4_0 :C_13_0 :C_6_0 :C_7_0 :C_14_0 :C_9_0 :C_10_0 :C_15_0" shape="146.80,142.80 153.20,142.80 153.64,145.02 154.20,145.80 154.98,146.36 155.98,146.69 157.20,146.80 157.20,153.20 154.98,153.64 154.20,154.20 153.64,154.98 153.31,155.98 153.20,157.20 146.80,157.20 146.36,154.98 145.80,154.20 145.02,153.64 144.02,153.31 142.80,153.20 142.80,146.80 145.02,146.36 145.80,145.80 146.36,145.02 146.69,144.02">
        <request index="0"  response="000000000000" foes="000100010000" cont="0"/>
        <request index="1"  response="100000100000" foes="111100110000" cont="0"/>
        <request index="2"  response="100011100000" foes="110111110000" cont="1"/>
        <request index="3"  response="000010000000" foes="100010000000" cont="0"/>
        <request index="4"  response="000110000111" foes="100110000111" cont="0"/>
        <request index="5"  response="111110000110" foes="111110000110" cont="1"/>
        <request index="6"  response="000000000000" foes="010000000100" cont="0"/>
        <request index="7"  response="100000100000" foes="110000111100" cont="0"/>
        <request index="8"  response="100000100111" foes="110000110111" cont="1"/>
        <request index="9"  response="000000000010" foes="000000100010" cont="0"/>
        <request index="10" response="000111000110" foes="000111100110" cont="0"/>
        <request index="11" response="000110011110" foes="000110111110" cont="1"/>
    </junction>
    <junction id="E" type="priority" x="300.00" y="150.00" incLanes="e_out_0" intLanes=":E_0_0" shape="300.00,150.00 300.00,153.20 300.00,150.00">
        <request index="0" response="0" foes="0" cont="0"/>
    </junction>
    <junction id="N" type="priority" x="150.00" y="300.00" incLanes="n_out_0" intLanes=":N_0_0" shape="150.00,300.00 146.80,300.00 150.00,300.00">
        <request index="0" response="0" foes="0" cont="0"/>
    </junction>
    <junction id="S" type="priority" x="150.00" y="-0.00" incLanes="s_out_0" intLanes=":S_0_0" shape="150.00,-0.00 153.20,-0.00 150.00,-0.00">
        <request index="0" response="0" foes="0" cont="0"/>
    </junction>
    <junction id="W" type="priority" x="0.00" y="150.00" incLanes="w_out_0" intLanes=":W_0_0" shape="0.00,150.00 0.00,146.80 0.00,150.00">
        <request index="0" response="0" foes="0" cont="0"/>
    </junction>

    <junction id=":C_12_0" type="internal" x="149.04" y="146.80" incLanes=":C_2_0 n_in_0" intLanes=":C_4_0 :C_5_0 :C_6_0 :C_7_0 :C_10_0 :C_11_0"/>
    <junction id=":C_13_0" type="internal" x="153.20" y="149.04" incLanes=":C_5_0 w_in_0" intLanes=":C_1_0 :C_2_0 :C_7_0 :C_8_0 :C_9_0 :C_10_0"/>
    <junction id=":C_14_0" type="internal" x="150.96" y="153.20" incLanes=":C_8_0 s_in_0" intLanes=":C_0_0 :C_1_0 :C_4_0 :C_5_0 :C_10_0 :C_11_0"/>
    <junction id=":C_15_0" type="internal" x="146.80" y="150.96" incLanes=":C_11_0 e_in_0" intLanes=":C_1_0 :C_2_0 :C_3_0 :C_4_0 :C_7_0 :C_8_0"/>

    <connection from="e_in" to="s_out" fromLane="0" toLane="0" via=":C_3_0" tl="C" linkIndex="3" dir="l" state="o"/>
    <connection from="e_in" to="w_out" fromLane="0" toLane="0" via=":C_4_0" tl="C" linkIndex="4" dir="s" state="o"/>
    <connection from="e_in" to="n_out" fromLane="0" toLane="0" via=":C_5_0" tl="C" linkIndex="5" dir="r" state="o"/>
    <connection from="e_out" to="e_in" fromLane="0" toLane="0" via=":E_0_0" dir="T" state="M"/>
    <connection from="n_in" to="e_out" fromLane="0" toLane="0" via=":C_6_0" tl="C" linkIndex="6" dir="l" state="O"/>
    <connection from="n_in" to="s_out" fromLane="0" toLane="0" via=":C_7_0" tl="C" linkIndex="7" dir="s" state="O"/>
    <connection from="n_in" to="w_out" fromLane="0" toLane="0" via=":C_8_0" tl="C" linkIndex="8" dir="r" state="o"/>
    <connection from="n_out" to="n_in" fromLane="0" toLane="0" via=":N_0_0" dir="T" state="M"/>
    <connection from="s_in" to="w_out" fromLane="0" toLane="0" via=":C_0_0" tl="C" linkIndex="0" dir="l" state="O"/>
    <connection from="s_in" to="n_out" fromLane="0" toLane="0" via=":C_1_0" tl="C" linkIndex="1" dir="s" state="O"/>
    <connection from="s_in" to="e_out" fromLane="0" toLane="0" via=":C_2_0" tl="C" linkIndex="2" dir="r" state="o"/>
    <connection from="s_out" to="s_in" fromLane="0" toLane="0" via=":S_0_0" dir="T" state="M"/>
    <connection from="w_in" to="n_out" fromLane="0" toLane="0" via=":C_9_0" tl="C" linkIndex="9" dir="l" state="o"/>
    <connection from="w_in" to="e_out" fromLane="0" toLane="0" via=":C_10_0" tl="C" linkIndex="10" dir="s" state="o"/>
    <connection from="w_in" to="s_out" fromLane="0" toLane="0" via=":C_11_0" tl="C" linkIndex="11" dir="r" state="o"/>
    <connection from="w_out" to="w_in" fromLane="0" toLane="0" via=":W_0_0" dir="T" state="M"/>

    <connection from=":C_0" to="w_out" fromLane="0" toLane="0" dir="l" state="M"/>
    <connection from=":C_1" to="n_out" fromLane="0" toLane="0" dir="s" state="M"/>
    <connection from=":C_2" to="e_out" fromLane="0" toLane="0" via=":C_12_0" dir="r" state="m"/>
    <connection from=":C_12" to="e_out" fromLane="0" toLane="0" dir="r" state="M"/>
    <connection from=":C_3" to="s_out" fromLane="0" toLane="0" dir="l" state="M"/>
    <connection from=":C_4" to="w_out" fromLane="0" toLane="0" dir="s" state="M"/>
    <connection from=":C_5" to="n_out" fromLane="0" toLane="0" via=":C_13_0" dir="r" state="m"/>
    <connection from=":C_13" to="n_out" fromLane="0" toLane="0" dir="r" state="M"/>
    <connection from=":C_6" to="e_out" fromLane="0" toLane="0" dir="l" state="M"/>
    <connection from=":C_7" to="s_out" fromLane="0" toLane="0" dir="s" state="M"/>
    <connection from=":C_8" to="w_out" fromLane="0" toLane="0" via=":C_14_0" dir="r" state="m"/>
    <connection from=":C_14" to="w_out" fromLane="0" toLane="0" dir="r" state="M"/>
    <connection from=":C_9" to="n_out" fromLane="0" toLane="0" dir="l" state="M"/>
    <connection from=":C_10" to="e_out" fromLane="0" toLane="0" dir="s" state="M"/>
    <connection from=":C_11" to="s_out" fromLane="0" toLane="0" via=":C_15_0" dir="r" state="m"/>
    <connection from=":C_15" to="s_out" fromLane="0" toLane="0" dir="r" state="M"/>
    <connection from=":E_0" to="e_in" fromLane="0" toLane="0" dir="T" state="M"/>
    <connection from=":N_0" to="n_in" fromLane="0" toLane="0" dir="T" state="M"/>
    <connection from=":S_0" to="s_in" fromLane="0" toLane="0" dir="T" state="M"/>
    <connection from=":W_0" to="w_in" fromLane="0" toLane="0" dir="T" state="M"/>

</net>
